
##########################################################################
#               Crystallographic Information Format file
#               Produced by PyCifRW module
#
#  This is a CIF file.  CIF has been adopted by the International
#  Union of Crystallography as the standard for data archiving and
#  transmission.
#
#  For information on this file format, follow the CIF links at
#  http://www.iucr.org
##########################################################################

data_image0

_cell_length_a                          9.8064
_cell_length_b                          10.6685
_cell_length_c                          13.9712
_cell_angle_alpha                       95.3024
_cell_angle_beta                        110.546
_cell_angle_gamma                       74.7329
_symmetry_space_group_name_H-M          'P 1'
_symmetry_int_tables_number             1
loop_
  _symmetry_equiv_pos_as_xyz
         'x, y, z' 
loop_
  _atom_site_label
  _atom_site_occupancy
  _atom_site_fract_x
  _atom_site_fract_y
  _atom_site_fract_z
  _atom_site_thermal_displace_type
  _atom_site_B_iso_or_equiv
  _atom_site_type_symbol
  _atom_site_charge
         Co1       1.0000    0.62243   0.88012   0.24882   Biso      1.000     Co
          0.730083  
         Co2       1.0000    0.87488   0.38395   0.74792   Biso      1.000     Co
          0.733735  
         Co3       1.0000    0.37361   0.38012   0.75118   Biso      1.000     Co
          0.730083  
         Co4       1.0000    0.12696   0.88395   0.25208   Biso      1.000     Co
          0.733735  
         H1        1.0000    0.83300   0.76730   0.12580   Biso      1.000     H
          0.113229  
         H2        1.0000    0.84280   0.63980   0.98340   Biso      1.000     H
          0.113637  
         H3        1.0000    0.41800   0.61460   0.93560   Biso      1.000     H
          0.112278  
         H4        1.0000    0.42310   0.74200   0.08080   Biso      1.000     H
          0.112448  
         H5        1.0000    0.90470   0.49070   0.56220   Biso      1.000     H
          0.11547   
         H6        1.0000    0.76160   0.61190   0.41520   Biso      1.000     H
          0.115298  
         H7        1.0000    0.39070   0.63690   0.48940   Biso      1.000     H
          0.113549  
         H8        1.0000    0.54530   0.51100   0.63360   Biso      1.000     H
          0.113549  
         H9        1.0000    0.50620   0.16690   0.30840   Biso      1.000     H
          0.116544  
         H10       1.0000    0.50480   0.29630   0.45120   Biso      1.000     H
          0.113637  
         H11       1.0000    0.74350   0.98270   0.62960   Biso      1.000     H
          0.11083   
         H12       1.0000    0.72890   0.85810   0.48460   Biso      1.000     H
          0.113637  
         H13       1.0000    0.97890   0.40650   0.98620   Biso      1.000     H
          0.11083   
         H14       1.0000    0.11330   0.28220   0.13260   Biso      1.000     H
          0.11547   
         H15       1.0000    0.22400   0.98020   0.95260   Biso      1.000     H
          0.113125  
         H16       1.0000    0.06760   0.10740   0.81120   Biso      1.000     H
          0.11083   
         H17       1.0000    0.70720   0.26730   0.87420   Biso      1.000     H
          0.113229  
         H18       1.0000    0.85940   0.13980   0.01660   Biso      1.000     H
          0.113637  
         H19       1.0000    0.48240   0.11460   0.06440   Biso      1.000     H
          0.112278  
         H20       1.0000    0.34230   0.24200   0.91920   Biso      1.000     H
          0.112448  
         H21       1.0000    0.34250   0.99070   0.43780   Biso      1.000     H
          0.11547   
         H22       1.0000    0.34640   0.11190   0.58480   Biso      1.000     H
          0.115298  
         H23       1.0000    0.90130   0.13690   0.51060   Biso      1.000     H
          0.113549  
         H24       1.0000    0.91170   0.01100   0.36640   Biso      1.000     H
          0.113549  
         H25       1.0000    0.19780   0.66690   0.69160   Biso      1.000     H
          0.116544  
         H26       1.0000    0.05360   0.79630   0.54880   Biso      1.000     H
          0.113637  
         H27       1.0000    0.11390   0.48270   0.37040   Biso      1.000     H
          0.11083   
         H28       1.0000    0.24430   0.35810   0.51540   Biso      1.000     H
          0.113637  
         H29       1.0000    0.99270   0.90650   0.01380   Biso      1.000     H
          0.11083   
         H30       1.0000    0.98070   0.78220   0.86740   Biso      1.000     H
          0.11547   
         H31       1.0000    0.27140   0.48020   0.04740   Biso      1.000     H
          0.113125  
         H32       1.0000    0.25640   0.60740   0.18880   Biso      1.000     H
          0.11083   
         C1        1.0000    0.74818   0.73530   0.08696   Biso      1.000     C
          0.059993  
         C2        1.0000    0.75461   0.66020   0.00142   Biso      1.000     C
          -0.12969  
         C3        1.0000    0.62945   0.61520   0.94230   Biso      1.000     C
          -0.023209           
         C4        1.0000    0.50461   0.64510   0.97322   Biso      1.000     C
          -0.143066           
         C5        1.0000    0.50919   0.72060   0.06038   Biso      1.000     C
          0.046757  
         C6        1.0000    0.63180   0.53350   0.84780   Biso      1.000     C
          0.59001   
         C7        1.0000    0.79931   0.52100   0.54722   Biso      1.000     C
          0.054053  
         C8        1.0000    0.71486   0.59400   0.45972   Biso      1.000     C
          -0.142057           
         C9        1.0000    0.56235   0.64040   0.43790   Biso      1.000     C
          0.003131  
         C10       1.0000    0.49614   0.60830   0.50328   Biso      1.000     C
          -0.132842           
         C11       1.0000    0.58939   0.53340   0.58898   Biso      1.000     C
          0.063413  
         C12       1.0000    0.46520   0.72610   0.34600   Biso      1.000     C
          0.613543  
         C13       1.0000    0.55325   0.12850   0.37430   Biso      1.000     C
          0.045872  
         C14       1.0000    0.55271   0.20620   0.45922   Biso      1.000     C
          -0.139324           
         C15       1.0000    0.62239   0.15190   0.55618   Biso      1.000     C
          -0.000719           
         C16       1.0000    0.69129   0.02200   0.56418   Biso      1.000     C
          -0.148419           
         C17       1.0000    0.68481   0.94890   0.47742   Biso      1.000     C
          0.019868  
         C18       1.0000    0.61960   0.23330   0.65060   Biso      1.000     C
          0.582324  
         C19       1.0000    0.02628   0.31790   0.97916   Biso      1.000     C
          0.044084  
         C20       1.0000    0.10899   0.24480   0.06758   Biso      1.000     C
          -0.152489           
         C21       1.0000    0.18560   0.11620   0.06000   Biso      1.000     C
          -0.014038           
         C22       1.0000    0.17157   0.06650   0.96154   Biso      1.000     C
          -0.120492           
         C23       1.0000    0.08068   0.14440   0.87736   Biso      1.000     C
          0.031787  
         C24       1.0000    0.28070   0.03230   0.15220   Biso      1.000     C
          0.613545  
         C25       1.0000    0.66122   0.23530   0.91304   Biso      1.000     C
          0.059993  
         C26       1.0000    0.75319   0.16020   0.99858   Biso      1.000     C
          -0.12969  
         C27       1.0000    0.68715   0.11520   0.05770   Biso      1.000     C
          -0.023209           
         C28       1.0000    0.53139   0.14510   0.02678   Biso      1.000     C
          -0.143066           
         C29       1.0000    0.44881   0.22060   0.93962   Biso      1.000     C
          0.046757  
         C30       1.0000    0.78400   0.03350   0.15220   Biso      1.000     C
          0.59001   
         C31       1.0000    0.25209   0.02100   0.45278   Biso      1.000     C
          0.054053  
         C32       1.0000    0.25514   0.09400   0.54028   Biso      1.000     C
          -0.142057           
         C33       1.0000    0.12445   0.14040   0.56210   Biso      1.000     C
          0.003131  
         C34       1.0000    0.99286   0.10830   0.49672   Biso      1.000     C
          -0.132842           
         C35       1.0000    0.00041   0.03340   0.41102   Biso      1.000     C
          0.063413  
         C36       1.0000    0.11920   0.22610   0.65400   Biso      1.000     C
          0.613543  
         C37       1.0000    0.17895   0.62850   0.62570   Biso      1.000     C
          0.045872  
         C38       1.0000    0.09349   0.70620   0.54078   Biso      1.000     C
          -0.139324           
         C39       1.0000    0.06621   0.65190   0.44382   Biso      1.000     C
          -0.000719           
         C40       1.0000    0.12711   0.52200   0.43582   Biso      1.000     C
          -0.148419           
         C41       1.0000    0.20739   0.44890   0.52258   Biso      1.000     C
          0.019868  
         C42       1.0000    0.96900   0.73330   0.34940   Biso      1.000     C
          0.582324  
         C43       1.0000    0.04712   0.81790   0.02084   Biso      1.000     C
          0.044084  
         C44       1.0000    0.04141   0.74480   0.93242   Biso      1.000     C
          -0.152489           
         C45       1.0000    0.12560   0.61620   0.94000   Biso      1.000     C
          -0.014038           
         C46       1.0000    0.21003   0.56650   0.03846   Biso      1.000     C
          -0.120492           
         C47       1.0000    0.20332   0.64440   0.12264   Biso      1.000     C
          0.031787  
         C48       1.0000    0.12850   0.53230   0.84780   Biso      1.000     C
          0.613545  
         N1        1.0000    0.62944   0.76470   0.11708   Biso      1.000     N
          -0.245003           
         N2        1.0000    0.73837   0.49130   0.61174   Biso      1.000     N
          -0.188327           
         N3        1.0000    0.61891   0.99930   0.38222   Biso      1.000     N
          -0.192419           
         N4        1.0000    0.00939   0.27050   0.88438   Biso      1.000     N
          -0.194483           
         N5        1.0000    0.51236   0.26470   0.88292   Biso      1.000     N
          -0.245003           
         N6        1.0000    0.12663   0.99130   0.38826   Biso      1.000     N
          -0.188327           
         N7        1.0000    0.23669   0.49930   0.61778   Biso      1.000     N
          -0.192419           
         N8        1.0000    0.12501   0.77050   0.11562   Biso      1.000     N
          -0.194483           
         O1        1.0000    0.75424   0.50320   0.83188   Biso      1.000     O
          -0.503702           
         O2        1.0000    0.50910   0.50880   0.79320   Biso      1.000     O
          -0.515931           
         O3        1.0000    0.52483   0.74940   0.28586   Biso      1.000     O
          -0.51336  
         O4        1.0000    0.32857   0.76720   0.33674   Biso      1.000     O
          -0.500785           
         O5        1.0000    0.73931   0.25120   0.71422   Biso      1.000     O
          -0.529303           
         O6        1.0000    0.49046   0.27300   0.65812   Biso      1.000     O
          -0.505312           
         O7        1.0000    0.21939   0.02230   0.21578   Biso      1.000     O
          -0.511389           
         O8        1.0000    0.41244   0.98540   0.15648   Biso      1.000     O
          -0.500195           
         O9        1.0000    0.92236   0.00320   0.16812   Biso      1.000     O
          -0.503702           
         O10       1.0000    0.71590   0.00880   0.20680   Biso      1.000     O
          -0.515931           
         O11       1.0000    0.23897   0.24940   0.71414   Biso      1.000     O
          -0.51336  
         O12       1.0000    0.99183   0.26720   0.66326   Biso      1.000     O
          -0.500785           
         O13       1.0000    0.02509   0.75120   0.28578   Biso      1.000     O
          -0.529303           
         O14       1.0000    0.83234   0.77300   0.34188   Biso      1.000     O
          -0.505312           
         O15       1.0000    0.00361   0.52230   0.78422   Biso      1.000     O
          -0.511389           
         O16       1.0000    0.25596   0.48540   0.84352   Biso      1.000     O
          -0.500195 